<?xml version="1.0" encoding="UTF-8"?>

<!-- generated on 2023-07-25 23:14:23 by Eclipse SUMO netconvert Version 1.12.0
<configuration xmlns:xsi="http://www.w3.org/2001/XMLSchema-instance" xsi:noNamespaceSchemaLocation="http://sumo.dlr.de/xsd/netconvertConfiguration.xsd">

    <input>
        <osm-files value="/content/drive/MyDrive/Manhattan/newyork_city.osm"/>
    </input>

    <output>
        <output-file value="/content/drive/MyDrive/Manhattan/newyork_city.net.xml"/>
    </output>

    <projection>
        <proj.utm value="true"/>
    </projection>

    <processing>
        <geometry.remove value="true"/>
    </processing>

    <tls_building>
        <tls.discard-simple value="true"/>
        <tls.guess-signals value="true"/>
    </tls_building>

    <ramp_guessing>
        <ramps.guess value="true"/>
    </ramp_guessing>

    <junctions>
        <junctions.join value="true"/>
    </junctions>

    <report>
        <aggregate-warnings value="5"/>
    </report>

</configuration>
-->

<net version="1.9" junctionCornerDetail="5" limitTurnSpeed="5.50" xmlns:xsi="http://www.w3.org/2001/XMLSchema-instance" xsi:noNamespaceSchemaLocation="http://sumo.dlr.de/xsd/net_file.xsd">

    <location netOffset="-584641.24,-4511167.01" convBoundary="0.00,0.00,3707.80,4392.67" origBoundary="-73.997127,40.746962,-73.952879,40.786277" projParameter="+proj=utm +zone=18 +ellps=WGS84 +datum=WGS84 +units=m +no_defs"/>

    <type id="highway.bridleway" priority="1" numLanes="1" speed="2.78" allow="pedestrian" oneway="1" width="2.00"/>
    <type id="highway.bus_guideway" priority="1" numLanes="1" speed="27.78" allow="bus" oneway="1"/>
    <type id="highway.cycleway" priority="1" numLanes="1" speed="8.33" allow="bicycle" oneway="0" width="1.00"/>
    <type id="highway.footway" priority="1" numLanes="1" speed="2.78" allow="pedestrian" oneway="1" width="2.00"/>
    <type id="highway.ford" priority="1" numLanes="1" speed="2.78" allow="army" oneway="0"/>
    <type id="highway.living_street" priority="2" numLanes="1" speed="2.78" disallow="tram rail_urban rail rail_electric rail_fast ship" oneway="0"/>
    <type id="highway.motorway" priority="14" numLanes="2" speed="39.44" allow="private emergency authority army vip passenger hov taxi bus coach delivery truck trailer motorcycle evehicle custom1 custom2" oneway="1"/>
    <type id="highway.motorway_link" priority="9" numLanes="1" speed="22.22" allow="private emergency authority army vip passenger hov taxi bus coach delivery truck trailer motorcycle evehicle custom1 custom2" oneway="1"/>
    <type id="highway.path" priority="1" numLanes="1" speed="2.78" allow="pedestrian bicycle" oneway="0" width="2.00"/>
    <type id="highway.pedestrian" priority="1" numLanes="1" speed="2.78" allow="pedestrian" oneway="1" width="2.00"/>
    <type id="highway.primary" priority="12" numLanes="2" speed="27.78" disallow="tram rail_urban rail rail_electric rail_fast ship" oneway="0"/>
    <type id="highway.primary_link" priority="7" numLanes="1" speed="22.22" disallow="tram rail_urban rail rail_electric rail_fast ship" oneway="0"/>
    <type id="highway.raceway" priority="15" numLanes="2" speed="83.33" allow="vip" oneway="0"/>
    <type id="highway.residential" priority="3" numLanes="1" speed="13.89" disallow="tram rail_urban rail rail_electric rail_fast ship" oneway="0"/>
    <type id="highway.secondary" priority="11" numLanes="1" speed="27.78" disallow="tram rail_urban rail rail_electric rail_fast ship" oneway="0"/>
    <type id="highway.secondary_link" priority="6" numLanes="1" speed="22.22" disallow="tram rail_urban rail rail_electric rail_fast ship" oneway="0"/>
    <type id="highway.service" priority="1" numLanes="1" speed="5.56" allow="pedestrian delivery bicycle" oneway="0"/>
    <type id="highway.stairs" priority="1" numLanes="1" speed="1.39" allow="pedestrian" oneway="1" width="2.00"/>
    <type id="highway.step" priority="1" numLanes="1" speed="1.39" allow="pedestrian" oneway="1" width="2.00"/>
    <type id="highway.steps" priority="1" numLanes="1" speed="1.39" allow="pedestrian" oneway="1" width="2.00"/>
    <type id="highway.tertiary" priority="10" numLanes="1" speed="22.22" disallow="tram rail_urban rail rail_electric rail_fast ship" oneway="0"/>
    <type id="highway.tertiary_link" priority="5" numLanes="1" speed="22.22" disallow="tram rail_urban rail rail_electric rail_fast ship" oneway="0"/>
    <type id="highway.track" priority="1" numLanes="1" speed="5.56" allow="pedestrian motorcycle moped bicycle" oneway="0"/>
    <type id="highway.trunk" priority="13" numLanes="2" speed="27.78" disallow="pedestrian bicycle tram rail_urban rail rail_electric rail_fast ship" oneway="0"/>
    <type id="highway.trunk_link" priority="8" numLanes="1" speed="22.22" disallow="pedestrian bicycle tram rail_urban rail rail_electric rail_fast ship" oneway="0"/>
    <type id="highway.unclassified" priority="4" numLanes="1" speed="13.89" disallow="tram rail_urban rail rail_electric rail_fast ship" oneway="0"/>
    <type id="highway.unsurfaced" priority="1" numLanes="1" speed="8.33" disallow="tram rail_urban rail rail_electric rail_fast ship" oneway="0"/>
    <type id="railway.highspeed" priority="21" numLanes="1" speed="69.44" allow="rail_fast" oneway="1"/>
    <type id="railway.light_rail" priority="19" numLanes="1" speed="27.78" allow="rail_urban" oneway="1"/>
    <type id="railway.preserved" priority="16" numLanes="1" speed="27.78" allow="rail" oneway="1"/>
    <type id="railway.rail" priority="20" numLanes="1" speed="44.44" allow="rail" oneway="1"/>
    <type id="railway.subway" priority="18" numLanes="1" speed="27.78" allow="rail_urban" oneway="1"/>
    <type id="railway.tram" priority="17" numLanes="1" speed="13.89" allow="tram" oneway="1"/>

    <edge id=":100521835_0" function="internal">
        <lane id=":100521835_0_0" index="0" disallow="tram rail_urban rail rail_electric rail_fast ship" speed="19.48" length="8.08" shape="1638.92,616.10 1640.83,614.69 1641.93,613.43 1643.05,612.20 1645.01,610.88"/>
    </edge>
    <edge id=":100522479_0" function="internal">
        <lane id=":100522479_0_0" index="0" disallow="tram rail_urban rail rail_electric rail_fast ship" speed="11.18" length="8.60" shape="1586.73,446.18 1585.45,443.98 1584.42,442.55 1583.16,441.33 1581.17,439.74"/>
    </edge>
    <edge id=":100522479_1" function="internal">
        <lane id=":100522479_1_0" index="0" disallow="tram rail_urban rail rail_electric rail_fast ship" speed="3.65" length="4.67" shape="1586.73,446.18 1586.83,444.74 1587.33,444.00 1588.23,443.95 1589.51,444.60"/>
    </edge>
    <edge id=":100522479_2" function="internal">
        <lane id=":100522479_2_0" index="0" disallow="tram rail_urban rail rail_electric rail_fast ship" speed="11.18" length="10.78" shape="1587.51,433.44 1588.48,436.46 1589.45,438.42 1590.64,440.29 1592.30,443.03"/>
        <lane id=":100522479_2_1" index="1" disallow="tram rail_urban rail rail_electric rail_fast ship" speed="11.18" length="14.84" shape="1583.55,431.10 1584.79,435.31 1585.90,438.11 1587.33,440.78 1589.51,444.60"/>
    </edge>
    <edge id=":100522479_4" function="internal">
        <lane id=":100522479_4_0" index="0" disallow="tram rail_urban rail rail_electric rail_fast ship" speed="6.08" length="13.24" shape="1583.55,431.10 1584.77,436.64 1584.78,439.92 1583.58,440.96 1581.17,439.74"/>
    </edge>
    <edge id=":10125156111_0" function="internal">
        <lane id=":10125156111_0_0" index="0" disallow="tram rail_urban rail rail_electric rail_fast ship" speed="11.18" length="8.20" shape="2080.53,1816.42 2082.51,1815.05 2083.66,1813.80 2084.81,1812.56 2086.80,1811.20"/>
        <lane id=":10125156111_0_1" index="1" disallow="tram rail_urban rail rail_electric rail_fast ship" speed="11.18" length="8.20" shape="2082.06,1819.23 2084.04,1817.86 2085.18,1816.61 2086.33,1815.37 2088.32,1814.01"/>
    </edge>
    <edge id=":10125247902_0" function="internal">
        <lane id=":10125247902_0_0" index="0" disallow="tram rail_urban rail rail_electric rail_fast ship" speed="11.18" length="8.21" shape="1606.22,704.06 1604.23,705.41 1603.08,706.66 1601.93,707.90 1599.94,709.27"/>
        <lane id=":10125247902_0_1" index="1" disallow="tram rail_urban rail rail_electric rail_fast ship" speed="11.18" length="8.21" shape="1606.22,704.06 1603.99,704.98 1602.31,705.25 1600.64,705.53 1598.41,706.46"/>
    </edge>
    <edge id=":10279559005_0" function="internal">
        <lane id=":10279559005_0_0" index="0" disallow="tram rail_urban rail rail_electric rail_fast ship" speed="11.18" length="8.21" shape="493.25,870.78 494.61,872.77 495.86,873.91 497.11,875.06 498.47,877.05"/>
        <lane id=":10279559005_0_1" index="1" disallow="tram rail_urban rail rail_electric rail_fast ship" speed="11.18" length="8.21" shape="490.44,872.30 491.80,874.29 493.05,875.44 494.29,876.58 495.65,878.57"/>
        <lane id=":10279559005_0_2" index="2" disallow="tram rail_urban rail rail_electric rail_fast ship" speed="11.18" length="8.21" shape="487.62,873.82 488.98,875.81 490.23,876.96 491.48,878.11 492.84,880.10"/>
        <lane id=":10279559005_0_3" index="3" disallow="tram rail_urban rail rail_electric rail_fast ship" speed="11.18" length="8.21" shape="487.62,873.82 488.54,876.05 488.82,877.72 489.10,879.39 490.03,881.62"/>
    </edge>
    <edge id=":10594155706_0" function="internal">
        <lane id=":10594155706_0_0" index="0" disallow="tram rail_urban rail rail_electric rail_fast ship" speed="22.22" length="8.21" shape="1188.24,1786.45 1187.12,1784.32 1186.01,1783.04 1184.90,1781.76 1183.77,1779.63"/>
        <lane id=":10594155706_0_1" index="1" disallow="tram rail_urban rail rail_electric rail_fast ship" speed="22.22" length="8.21" shape="1191.21,1785.25 1190.09,1783.12 1188.98,1781.84 1187.87,1780.56 1186.74,1778.43"/>
        <lane id=":10594155706_0_2" index="2" disallow="tram rail_urban rail rail_electric rail_fast ship" speed="22.22" length="8.21" shape="1191.21,1785.25 1190.55,1782.94 1190.46,1781.24 1190.37,1779.55 1189.71,1777.23"/>
    </edge>
    <edge id=":10598594003_0" function="internal">
        <lane id=":10598594003_0_0" index="0" disallow="tram rail_urban rail rail_electric rail_fast ship" speed="11.18" length="8.54" shape="965.23,957.38 963.30,958.99 962.47,960.69 961.64,962.39 959.72,964.00"/>
        <lane id=":10598594003_0_1" index="1" disallow="tram rail_urban rail rail_electric rail_fast ship" speed="11.18" length="8.54" shape="963.70,954.56 961.77,956.18 960.95,957.88 960.12,959.58 958.19,961.19"/>
        <lane id=":10598594003_0_2" index="2" disallow="tram rail_urban rail rail_electric rail_fast ship" speed="11.18" length="8.54" shape="963.70,954.56 956.67,958.38"/>
    </edge>
    <edge id=":10598594003_3" function="internal">
        <lane id=":10598594003_3_0" index="0" disallow="tram rail_urban rail rail_electric rail_fast ship" speed="11.18" length="8.00" shape="953.62,952.75 960.65,948.94"/>
        <lane id=":10598594003_3_1" index="1" disallow="tram rail_urban rail rail_electric rail_fast ship" speed="11.18" length="8.00" shape="955.14,955.56 962.18,951.75"/>
    </edge>
    <edge id=":10703807884_0" function="internal">
        <lane id=":10703807884_0_0" index="0" disallow="tram rail_urban rail rail_electric rail_fast ship" speed="13.89" length="8.21" shape="1447.84,417.25 1445.85,418.61 1444.70,419.85 1443.55,421.10 1441.56,422.45"/>
        <lane id=":10703807884_0_1" index="1" disallow="tram rail_urban rail rail_electric rail_fast ship" speed="13.89" length="8.21" shape="1447.84,417.25 1445.61,418.17 1443.94,418.44 1442.27,418.72 1440.04,419.63"/>
    </edge>
    <edge id=":10703807885_0" function="internal">
        <lane id=":10703807885_0_0" index="0" disallow="tram rail_urban rail rail_electric rail_fast ship" speed="13.89" length="8.21" shape="1318.83,486.78 1316.84,488.14 1315.69,489.39 1314.54,490.63 1312.55,491.99"/>
        <lane id=":10703807885_0_1" index="1" disallow="tram rail_urban rail rail_electric rail_fast ship" speed="13.89" length="8.21" shape="1318.83,486.78 1316.61,487.70 1314.93,487.98 1313.26,488.25 1311.03,489.17"/>
    </edge>
    <edge id=":10842005392_0" function="internal">
        <lane id=":10842005392_0_0" index="0" disallow="tram rail_urban rail rail_electric rail_fast ship" speed="11.18" length="8.21" shape="1726.96,1451.88 1728.96,1450.53 1730.11,1449.29 1731.26,1448.04 1733.25,1446.69"/>
        <lane id=":10842005392_0_1" index="1" disallow="tram rail_urban rail rail_electric rail_fast ship" speed="11.18" length="8.21" shape="1726.96,1451.88 1729.19,1450.97 1730.86,1450.70 1732.54,1450.42 1734.77,1449.51"/>
    </edge>
    <edge id=":2351532388_0" function="internal">
        <lane id=":2351532388_0_0" index="0" disallow="pedestrian tram rail_urban rail rail_electric rail_fast ship" speed="13.89" length="5.67" shape="319.26,1114.98 320.57,1113.98 321.24,1113.00 321.91,1112.01 323.22,1111.02"/>
        <lane id=":2351532388_0_1" index="1" disallow="pedestrian tram rail_urban rail rail_electric rail_fast ship" speed="13.89" length="5.67" shape="320.78,1117.79 322.09,1116.80 322.76,1115.81 323.43,1114.83 324.74,1113.83"/>
    </edge>
    <edge id=":3639381189_0" function="internal">
        <lane id=":3639381189_0_0" index="0" disallow="tram rail_urban rail rail_electric rail_fast ship" speed="11.18" length="0.61" shape="1796.76,861.24 1796.59,861.02 1796.48,860.87 1796.39,860.71 1796.26,860.48"/>
        <lane id=":3639381189_0_1" index="1" disallow="tram rail_urban rail rail_electric rail_fast ship" speed="11.18" length="0.61" shape="1799.26,859.25 1799.21,859.18 1799.17,859.13 1799.14,859.07 1799.10,858.99"/>
    </edge>
    <edge id=":3639381192_0" function="internal">
        <lane id=":3639381192_0_0" index="0" disallow="tram rail_urban rail rail_electric rail_fast ship" speed="11.18" length="0.59" shape="1821.66,846.85 1821.78,847.08 1821.86,847.24 1821.92,847.41 1822.00,847.66"/>
        <lane id=":3639381192_0_1" index="1" disallow="tram rail_urban rail rail_electric rail_fast ship" speed="11.18" length="0.59" shape="1818.82,848.32 1818.86,848.40 1818.89,848.45 1818.91,848.51 1818.93,848.59"/>
    </edge>
    <edge id=":3639382767_0" function="internal">
        <lane id=":3639382767_0_0" index="0" disallow="tram rail_urban rail rail_electric rail_fast ship" speed="11.18" length="6.29" shape="1581.01,439.62 1576.12,435.66"/>
    </edge>
    <edge id=":3639382767_1" function="internal">
        <lane id=":3639382767_1_0" index="0" disallow="tram rail_urban rail rail_electric rail_fast ship" speed="4.80" length="5.94" shape="1581.01,439.62 1579.68,438.30 1579.23,437.11 1579.67,436.03 1580.99,435.08"/>
    </edge>
    <edge id=":3639382767_2" function="internal">
        <lane id=":3639382767_2_0" index="0" disallow="tram rail_urban rail rail_electric rail_fast ship" speed="3.60" length="2.61" shape="1575.85,437.70 1576.47,437.26 1576.73,436.77 1576.61,436.24 1576.12,435.66"/>
    </edge>
    <edge id=":3639382767_3" function="internal">
        <lane id=":3639382767_3_0" index="0" disallow="tram rail_urban rail rail_electric rail_fast ship" speed="13.89" length="5.77" shape="1575.85,437.70 1580.99,435.08"/>
    </edge>
    <edge id=":3639382768_0" function="internal">
        <lane id=":3639382768_0_0" index="0" disallow="tram rail_urban rail rail_electric rail_fast ship" speed="11.18" length="0.59" shape="1571.64,438.01 1571.52,438.77"/>
        <lane id=":3639382768_0_1" index="1" disallow="tram rail_urban rail rail_electric rail_fast ship" speed="11.18" length="0.59" shape="1574.69,437.03 1574.35,437.27"/>
    </edge>
    <edge id=":3639382768_2" function="internal">
        <lane id=":3639382768_2_0" index="0" disallow="tram rail_urban rail rail_electric rail_fast ship" speed="8.76" length="1.23" shape="1575.97,435.53 1577.18,435.77"/>
    </edge>
    <edge id=":3639382769_0" function="internal">
        <lane id=":3639382769_0_0" index="0" disallow="tram rail_urban rail rail_electric rail_fast ship" speed="6.49" length="9.03" shape="1643.19,690.62 1641.74,688.61 1639.99,687.56 1637.96,687.45 1635.63,688.31"/>
    </edge>
    <edge id=":3639382769_1" function="internal">
        <lane id=":3639382769_1_0" index="0" disallow="tram rail_urban rail rail_electric rail_fast ship" speed="3.65" length="4.67" shape="1643.19,690.62 1643.34,689.18 1643.86,688.46 1644.75,688.44 1646.02,689.13"/>
    </edge>
    <edge id=":3786902260_0" function="internal">
        <lane id=":3786902260_0_0" index="0" disallow="tram rail_urban rail rail_electric rail_fast ship" speed="11.18" length="8.19" shape="1810.05,743.88 1811.39,745.89 1812.62,747.06 1813.83,748.24 1815.13,750.27"/>
        <lane id=":3786902260_0_1" index="1" disallow="tram rail_urban rail rail_electric rail_fast ship" speed="11.18" length="8.19" shape="1810.05,743.88 1810.94,746.11 1811.19,747.78 1811.42,749.45 1812.27,751.70"/>
    </edge>
    <edge id=":4202958491_0" function="internal">
        <lane id=":4202958491_0_0" index="0" disallow="tram rail_urban rail rail_electric rail_fast ship" speed="11.18" length="9.11" shape="1624.12,832.67 1626.01,834.57 1628.15,835.06 1630.28,835.56 1632.15,837.47"/>
        <lane id=":4202958491_0_1" index="1" disallow="tram rail_urban rail rail_electric rail_fast ship" speed="11.18" length="9.11" shape="1621.31,834.19 1623.19,836.09 1625.33,836.58 1627.46,837.07 1629.32,838.98"/>
        <lane id=":4202958491_0_2" index="2" disallow="tram rail_urban rail rail_electric rail_fast ship" speed="11.18" length="9.11" shape="1621.31,834.19 1622.67,836.18 1623.91,837.33 1625.15,838.48 1626.50,840.48"/>
        <lane id=":4202958491_0_3" index="3" disallow="tram rail_urban rail rail_electric rail_fast ship" speed="11.18" length="9.11" shape="1621.31,834.19 1622.23,836.41 1622.50,838.08 1622.77,839.75 1623.67,841.98"/>
        <lane id=":4202958491_0_4" index="4" disallow="tram rail_urban rail rail_electric rail_fast ship" speed="11.18" length="9.11" shape="1621.31,834.19 1621.86,836.79 1621.09,838.83 1620.31,840.87 1620.85,843.48"/>
    </edge>
    <edge id=":4207124945_0" function="internal">
        <lane id=":4207124945_0_0" index="0" disallow="tram rail_urban rail rail_electric rail_fast ship" speed="19.48" length="0.30" shape="2383.84,1188.76 2383.57,1188.91"/>
        <lane id=":4207124945_0_1" index="1" disallow="tram rail_urban rail rail_electric rail_fast ship" speed="19.48" length="0.30" shape="2382.33,1185.94 2382.07,1186.08"/>
    </edge>
    <edge id=":4207815979_0" function="internal">
        <lane id=":4207815979_0_0" index="0" disallow="tram rail_urban rail rail_electric rail_fast ship" speed="11.18" length="8.65" shape="1040.95,1883.00 1042.60,1884.93 1044.33,1885.76 1046.03,1886.60 1047.65,1888.55"/>
        <lane id=":4207815979_0_1" index="1" disallow="tram rail_urban rail rail_electric rail_fast ship" speed="11.18" length="8.65" shape="1038.16,1884.57 1039.81,1886.48 1041.52,1887.31 1043.23,1888.13 1044.84,1890.07"/>
        <lane id=":4207815979_0_2" index="2" disallow="tram rail_urban rail rail_electric rail_fast ship" speed="11.18" length="8.65" shape="1035.37,1886.13 1037.01,1888.04 1038.72,1888.85 1040.42,1889.67 1042.02,1891.59"/>
        <lane id=":4207815979_0_3" index="3" disallow="tram rail_urban rail rail_electric rail_fast ship" speed="11.18" length="8.65" shape="1032.58,1887.70 1034.21,1889.59 1035.91,1890.39 1037.61,1891.20 1039.21,1893.11"/>
        <lane id=":4207815979_0_4" index="4" disallow="tram rail_urban rail rail_electric rail_fast ship" speed="11.18" length="8.65" shape="1032.58,1887.70 1036.39,1894.63"/>
        <lane id=":4207815979_0_5" index="5" disallow="tram rail_urban rail rail_electric rail_fast ship" speed="11.18" length="8.65" shape="1032.58,1887.70 1033.33,1890.06 1033.10,1891.91 1032.86,1893.77 1033.57,1896.15"/>
    </edge>
    <edge id=":4207915681_0" function="internal">
        <lane id=":4207915681_0_0" index="0" disallow="tram rail_urban rail rail_electric rail_fast ship" speed="27.78" length="8.21" shape="2084.42,626.00 2082.43,627.37 2081.29,628.62 2080.15,629.87 2078.18,631.25"/>
        <lane id=":4207915681_0_1" index="1" disallow="tram rail_urban rail rail_electric rail_fast ship" speed="27.78" length="8.21" shape="2084.42,626.00 2082.19,626.93 2080.52,627.21 2078.85,627.51 2076.63,628.45"/>
    </edge>
    <edge id=":4207915682_0" function="internal">
        <lane id=":4207915682_0_0" index="0" disallow="tram rail_urban rail rail_electric rail_fast ship" speed="27.78" length="8.54" shape="1770.09,886.88 1772.00,885.24 1772.81,883.53 1773.62,881.82 1775.53,880.19"/>
        <lane id=":4207915682_0_1" index="1" disallow="tram rail_urban rail rail_electric rail_fast ship" speed="27.78" length="8.54" shape="1770.09,886.88 1777.08,882.99"/>
        <lane id=":4207915682_0_2" index="2" disallow="tram rail_urban rail rail_electric rail_fast ship" speed="27.78" length="8.54" shape="1770.09,886.88 1772.48,886.12 1774.36,886.33 1776.23,886.54 1778.63,885.79"/>
    </edge>
    <edge id=":4207952790_0" function="internal">
        <lane id=":4207952790_0_0" index="0" disallow="tram rail_urban rail rail_electric rail_fast ship" speed="11.18" length="8.21" shape="1701.34,970.51 1702.66,972.51 1703.88,973.66 1705.10,974.81 1706.44,976.80"/>
        <lane id=":4207952790_0_1" index="1" disallow="tram rail_urban rail rail_electric rail_fast ship" speed="11.18" length="8.21" shape="1698.50,971.98 1699.82,973.99 1701.04,975.15 1702.27,976.30 1703.61,978.30"/>
        <lane id=":4207952790_0_2" index="2" disallow="tram rail_urban rail rail_electric rail_fast ship" speed="11.18" length="8.21" shape="1695.66,973.45 1696.98,975.47 1698.21,976.63 1699.44,977.80 1700.79,979.80"/>
        <lane id=":4207952790_0_3" index="3" disallow="tram rail_urban rail rail_electric rail_fast ship" speed="11.18" length="8.21" shape="1692.81,974.92 1694.14,976.95 1695.37,978.12 1696.61,979.29 1697.96,981.30"/>
        <lane id=":4207952790_0_4" index="4" disallow="tram rail_urban rail rail_electric rail_fast ship" speed="11.18" length="8.21" shape="1692.81,974.92 1693.70,977.18 1693.96,978.87 1694.23,980.55 1695.14,982.80"/>
    </edge>
    <edge id=":4207957613_0" function="internal">
        <lane id=":4207957613_0_0" index="0" disallow="pedestrian tram rail_urban rail rail_electric rail_fast ship" speed="27.78" length="8.21" shape="609.45,1086.21 610.81,1088.20 612.05,1089.35 613.30,1090.50 614.65,1092.50"/>
        <lane id=":4207957613_0_1" index="1" disallow="pedestrian tram rail_urban rail rail_electric rail_fast ship" speed="27.78" length="8.21" shape="606.64,1087.73 607.99,1089.72 609.24,1090.87 610.48,1092.02 611.84,1094.01"/>
        <lane id=":4207957613_0_2" index="2" disallow="pedestrian tram rail_urban rail rail_electric rail_fast ship" speed="27.78" length="8.21" shape="603.82,1089.24 605.17,1091.23 606.42,1092.39 607.66,1093.54 609.02,1095.53"/>
        <lane id=":4207957613_0_3" index="3" disallow="pedestrian tram rail_urban rail rail_electric rail_fast ship" speed="27.78" length="8.21" shape="603.82,1089.24 604.73,1091.47 605.01,1093.14 605.28,1094.82 606.20,1097.05"/>
    </edge>
    <edge id=":4207957615_0" function="internal">
        <lane id=":4207957615_0_0" index="0" disallow="tram rail_urban rail rail_electric rail_fast ship" speed="11.18" length="8.16" shape="892.95,1605.20 894.33,1607.24 895.58,1608.44 896.81,1609.64 898.13,1611.71"/>
        <lane id=":4207957615_0_1" index="1" disallow="tram rail_urban rail rail_electric rail_fast ship" speed="11.18" length="8.16" shape="890.13,1606.72 891.50,1608.73 892.74,1609.91 893.96,1611.10 895.27,1613.15"/>
        <lane id=":4207957615_0_2" index="2" disallow="tram rail_urban rail rail_electric rail_fast ship" speed="11.18" length="8.16" shape="887.31,1608.23 888.66,1610.22 889.90,1611.38 891.11,1612.56 892.41,1614.58"/>
        <lane id=":4207957615_0_3" index="3" disallow="tram rail_urban rail rail_electric rail_fast ship" speed="11.18" length="8.16" shape="884.49,1609.74 885.83,1611.71 887.06,1612.86 888.26,1614.01 889.55,1616.01"/>
        <lane id=":4207957615_0_4" index="4" disallow="tram rail_urban rail rail_electric rail_fast ship" speed="11.18" length="8.16" shape="881.67,1611.26 883.00,1613.20 884.22,1614.33 885.42,1615.47 886.69,1617.44"/>
        <lane id=":4207957615_0_5" index="5" disallow="tram rail_urban rail rail_electric rail_fast ship" speed="11.18" length="8.16" shape="881.67,1611.26 882.55,1613.42 882.79,1615.05 883.00,1616.68 883.82,1618.88"/>
    </edge>
    <edge id=":42427762_0" function="internal">
        <lane id=":42427762_0_0" index="0" disallow="tram rail_urban rail rail_electric rail_fast ship" speed="11.18" length="17.78" shape="1998.36,1870.67 1990.24,1855.01"/>
        <lane id=":42427762_0_1" index="1" disallow="tram rail_urban rail rail_electric rail_fast ship" speed="11.18" length="17.78" shape="2001.23,1869.24 1993.06,1853.49"/>
        <lane id=":42427762_0_2" index="2" disallow="tram rail_urban rail rail_electric rail_fast ship" speed="11.18" length="17.78" shape="2004.09,1867.81 1995.88,1851.98"/>
        <lane id=":42427762_0_3" index="3" disallow="tram rail_urban rail rail_electric rail_fast ship" speed="11.18" length="17.78" shape="2006.95,1866.37 1998.70,1850.47"/>
    </edge>
    <edge id=":42427762_4" function="internal">
        <lane id=":42427762_4_0" index="0" disallow="tram rail_urban rail rail_electric rail_fast ship" speed="7.34" length="11.72" shape="2006.95,1866.37 2005.54,1862.77 2005.23,1859.84 2006.04,1857.58 2007.97,1855.98"/>
        <lane id=":42427762_4_1" index="1" disallow="tram rail_urban rail rail_electric rail_fast ship" speed="6.53" length="9.04" shape="2006.95,1866.37 2006.16,1864.03 2006.31,1861.99 2007.40,1860.25 2009.42,1858.83"/>
    </edge>
    <edge id=":42427762_6" function="internal">
        <lane id=":42427762_6_0" index="0" disallow="tram rail_urban rail rail_electric rail_fast ship" speed="6.44" length="9.03" shape="1987.84,1862.49 1989.88,1861.09 1990.97,1859.37 1991.09,1857.35 1990.24,1855.01"/>
        <lane id=":42427762_6_1" index="1" disallow="tram rail_urban rail rail_electric rail_fast ship" speed="7.26" length="11.78" shape="1987.84,1862.49 1991.14,1860.46 1993.11,1858.29 1993.75,1855.97 1993.06,1853.49"/>
    </edge>
    <edge id=":42427762_8" function="internal">
        <lane id=":42427762_8_0" index="0" disallow="tram rail_urban rail rail_electric rail_fast ship" speed="11.18" length="20.93" shape="1987.84,1862.49 2006.51,1853.13"/>
        <lane id=":42427762_8_1" index="1" disallow="tram rail_urban rail rail_electric rail_fast ship" speed="11.18" length="20.93" shape="1989.25,1865.36 2007.97,1855.98"/>
        <lane id=":42427762_8_2" index="2" disallow="tram rail_urban rail rail_electric rail_fast ship" speed="11.18" length="20.93" shape="1990.67,1868.23 2009.42,1858.83"/>
    </edge>
    <edge id=":42428253_0" function="internal">
        <lane id=":42428253_0_0" index="0" disallow="tram rail_urban rail rail_electric rail_fast ship" speed="5.93" length="9.44" shape="806.26,415.20 805.55,412.44 804.25,410.90 802.35,410.59 799.86,411.51"/>
    </edge>
    <edge id=":42428253_1" function="internal">
        <lane id=":42428253_1_0" index="0" disallow="tram rail_urban rail rail_electric rail_fast ship" speed="13.89" length="10.98" shape="810.11,407.72 807.16,409.04 804.98,409.61 802.81,410.18 799.86,411.51"/>
        <lane id=":42428253_1_1" index="1" disallow="tram rail_urban rail rail_electric rail_fast ship" speed="13.89" length="10.98" shape="808.58,404.91 805.62,406.23 803.44,406.80 801.27,407.37 798.32,408.71"/>
    </edge>
    <edge id=":42428258_0" function="internal">
        <lane id=":42428258_0_0" index="0" disallow="tram rail_urban rail rail_electric rail_fast ship" speed="11.18" length="15.82" shape="817.78,498.68 815.35,483.05"/>
    </edge>
    <edge id=":42428258_1" function="internal">
        <lane id=":42428258_1_0" index="0" disallow="tram rail_urban rail rail_electric rail_fast ship" speed="8.55" length="11.90" shape="817.78,498.68 817.66,495.31 818.35,492.48 819.85,490.19 822.14,488.46"/>
        <lane id=":42428258_1_1" index="1" disallow="tram rail_urban rail rail_electric rail_fast ship" speed="7.90" length="10.03" shape="817.78,498.68 817.94,496.75 818.97,494.87 820.89,493.04 823.67,491.27"/>
    </edge>
    <edge id=":42428258_3" function="internal">
        <lane id=":42428258_3_0" index="0" disallow="tram rail_urban rail rail_electric rail_fast ship" speed="8.34" length="11.45" shape="810.92,492.76 813.26,491.02 814.78,488.82 815.48,486.17 815.35,483.05"/>
    </edge>
    <edge id=":42428258_4" function="internal">
        <lane id=":42428258_4_0" index="0" disallow="tram rail_urban rail rail_electric rail_fast ship" speed="27.78" length="12.05" shape="810.92,492.76 813.92,490.83 815.77,489.19 817.62,487.56 820.62,485.64"/>
        <lane id=":42428258_4_1" index="1" disallow="tram rail_urban rail rail_electric rail_fast ship" speed="27.78" length="12.05" shape="812.46,495.56 815.45,493.64 817.30,492.00 819.15,490.37 822.14,488.46"/>
    </edge>
    <edge id=":42428264_0" function="internal">
        <lane id=":42428264_0_0" index="0" disallow="tram rail_urban rail rail_electric rail_fast ship" speed="5.92" length="9.08" shape="829.87,581.47 829.02,578.98 827.65,577.63 825.75,577.42 823.32,578.36"/>
    </edge>
    <edge id=":42428264_1" function="internal">
        <lane id=":42428264_1_0" index="0" disallow="tram rail_urban rail rail_electric rail_fast ship" speed="11.18" length="14.68" shape="829.87,581.47 827.44,567.00"/>
    </edge>
    <edge id=":42428264_2" function="internal">
        <lane id=":42428264_2_0" index="0" disallow="tram rail_urban rail rail_electric rail_fast ship" speed="27.78" length="13.08" shape="833.95,570.71 831.01,572.03 828.38,572.83 825.50,573.77 821.82,575.53"/>
    </edge>
    <edge id=":42428264_3" function="internal">