<?xml version="1.0" encoding="UTF-8"?>

<!-- generated on 2023-07-25 23:14:24 by Eclipse SUMO duarouter Version 1.12.0
<configuration xmlns:xsi="http://www.w3.org/2001/XMLSchema-instance" xsi:noNamespaceSchemaLocation="http://sumo.dlr.de/xsd/duarouterConfiguration.xsd">

    <input>
        <net-file value="/content/drive/MyDrive/Manhattan/newyork_city.net.xml"/>
        <route-files value="/content/drive/MyDrive/Manhattan/newyork_city.trips.xml"/>
    </input>

    <output>
        <output-file value="/content/drive/MyDrive/Manhattan/newyork_city.rou.xml"/>
        <vtype-output value="route_vtypes.xml"/>
        <alternatives-output value="/content/drive/MyDrive/Manhattan/newyork_city.rou.alt.xml"/>
    </output>

    <processing>
        <repair value="true"/>
    </processing>

</configuration>
-->

<routes xmlns:xsi="http://www.w3.org/2001/XMLSchema-instance" xsi:noNamespaceSchemaLocation="http://sumo.dlr.de/xsd/routes_file.xsd">
    <vehicle id="trip_0" depart="0.00">
        <route edges="46538371#0 1136460180#0 1136460181#0 812949648#0 1136460179#0 1136460176#0 420908138#0 5670867#0 458180190#0 384178816#0 384178816#3 511699175#0 5670225#0 1106482767#0 458180181#0 46520921#5 -46520921#6"/>
    </vehicle>
    <vehicle id="trip_1" depart="0.50">
        <route edges="195743344#0 569345546#0 542258061#0 1021068251#0 440122868#0 1021065071#0 448686048#0 167922072#0"/>
    </vehicle>
    <vehicle id="trip_2" depart="1.00">
        <route edges="542257009#0 384649120#8 384649120#11 1021068251#0 440122868#0 1021065071#0 448686048#0 127693103#0 127693103#3 464516471#0 464516471#2 464516471#4 464516471#6 464516471#8 464516471#10 464516471#11 569345537#0 569345537#1 569345537#2 46521993#0 5672954#0 541331485#0 497165756#7"/>
    </vehicle>
    <vehicle id="trip_3" depart="1.50">
        <route edges="658583340#5 458180193#4 458180189#0 458180186#0 458180186#4 1051743127#0 458180184#0 384178816#0 384178816#3 511699175#0 458180183#0 438397345#0 464515891#0 511699184#0 511699185#0 438385431#0 438385431#3 438385431#6 438385431#9 420904660#0 1036712190"/>
    </vehicle>
    <vehicle id="trip_4" depart="2.00">
        <route edges="420906753 496992868 1023238044 420281339#0 458180196 420906752 421850830 421850829#0 -1087048475#1 -497258109#3"/>
    </vehicle>
    <vehicle id="trip_5" depart="2.50">
        <route edges="125479721#0 542257430#0 195743345#0 420907902#0 125480075#0 194926851#0 194926851#1 194926851#3 846142553#0 420494981#0 1051744070#0 46522000#0 5670225#0 458180182#0"/>
    </vehicle>
    <vehicle id="trip_6" depart="3.00">
        <route edges="-46520921#6 -46520921#4 511699176#0 458177130#0 1061622295#0 5670124 464516471#2 464516471#4 464516471#6 464516471#8 464516471#10 464516471#11 569345537#0 569345537#1 420905130 46538371#0 1136460180#0"/>
    </vehicle>
    <vehicle id="trip_7" depart="3.50">
        <route edges="496983398#0 587038081#0 384649120#2 384649120#5 384649120#8 384649120#11 1021068251#0 440122868#0 1021065071#0 448686048#0 127693103#0 127693103#3 464516471#0 464516471#2 464516471#4 464516471#6 464516471#8 464516471#10 464516471#11 569345537#0 569345537#1 569345537#2 46521993#0 5672954#0 458180196"/>
    </vehicle>
    <vehicle id="trip_8" depart="4.00">
        <route edges="125480075#0 194926851#0 194926851#1 194926851#3 846142553#0 420494981#0 1051744070#0 464516471#4 464516471#6"/>
    </vehicle>
    <vehicle id="trip_9" depart="4.50">
        <route edges="5673323#0 803047266#0 195743209#0 195743345#0 420907902#0 -525729008#5 -167922076#2"/>
    </vehicle>
    <vehicle id="trip_10" depart="5.00">
        <route edges="5672951#0 671208357#0 497165757#0 569345502#0 569345502#3 569345502#6 458180195#0 458180193#0 458180193#2 458180193#4 458180189#0 458180187#0 458180187#2 458180187#4 196117039#0 458177131#0 727702633 727702632#0 511699176#0"/>
    </vehicle>
    <vehicle id="trip_11" depart="5.50">
        <route edges="324118558#0 196116976#9 1136460180#0 1136460181#0 812949648#0 1136460179#0 1136460176#0 420908138#0 5670867#0 458180190#0 384178816#0 384178816#3 511699175#0 5670225#0 1106482767#0 458180181#0 46520921#5 1106482765#0"/>
    </vehicle>
    <vehicle id="trip_12" depart="6.00">
        <route edges="803047267#0 542258061#0 226041022#0 5672155#0 226041004#0 771759767 771759765 386972970 872052106 1037772011 575746067 359180981#0"/>
    </vehicle>
    <vehicle id="trip_13" depart="6.50">
        <route edges="1037772011 575746067 359180981#0 1049841322#0 569345515#12 22916381#0 609596058 988956475 -988956476 44165031 771759765 226041002 771759764#0 1046745000#0"/>
    </vehicle>
    <vehicle id="trip_14" depart="7.00">
        <route edges="569345537#2 569345537#4 499172074#3 499172074#6 196116976#6 196116976#9 1136460180#0 1136460181#0 812949648#0 226041030 226041031 1025734018#0 1025734019#0 1025734020#0 1025734020#3 814278019#0 1136391283#0 1136391283#3 46482604"/>
    </vehicle>
    <vehicle id="trip_15" depart="7.50">
        <route edges="5672954#0 541331485#0 497165753#9 458180192#4 420281338#0 5671709#0 569345537#2 569345537#4 541350711#0"/>
    </vehicle>
    <vehicle id="trip_16" depart="8.00">
        <route edges="458180191#6 458180190#0 384178816#0 384178816#3 511699175#0 458180183#0 438397345#0 464515891#0 511699184#0 511699185#0 438385431#0 5672155#0 226041004#0 771759767 771759765 386972970 872052106"/>
    </vehicle>
    <vehicle id="trip_17" depart="8.50">
        <route edges="420281338#0 458180191#0 458180191#3 458180191#6 458180190#0 384178816#0 384178816#3 511699175#0 458180183#0 1061622295#0 5670124 1117867038#0 1117867040#1 46522008#2 1051744778#0 968513230#0 460585328#7 460585328#10 460585328#13"/>
    </vehicle>
    <vehicle id="trip_18" depart="9.00">
        <route edges="569345515#12 1049841322#0 1049841322#3 1049841322#6 1049841322#9 511924978#1 458180188#0 458166897#24 458166897#27 458166897#30 46521998#0"/>
    </vehicle>
    <vehicle id="trip_19" depart="9.50">
        <route edges="569345544#0 -167922076#2 -1136952921#1 -167922072#1 127693103#0 127693103#3 464515890 1051846230#0 464515891#0"/>
    </vehicle>
    <vehicle id="trip_20" depart="10.00">
        <route edges="511699178 5673515#0 511699184#0 511699185#0 438385431#0 438385431#3 36806906#0 384649120#11 1021068251#0 440122868#0 1021065071#0"/>
    </vehicle>
    <vehicle id="trip_21" depart="10.50">
        <route edges="167922071#0 483360105#0 420494981#0 1051744070#0 46522000#0 458180183#0 438397345#0 464515891#0 511699184#0 511699185#0 438385431#0 438385431#3 438385431#6 483236728#0 195743182#3 226041001#0"/>
    </vehicle>
    <vehicle id="trip_22" depart="11.00">
        <route edges="1030123273#0 5671192#3 420902874#0 458166897#9 458166897#12 458166897#15 458166897#18 458166897#21 46522003#0 169267541#0"/>
    </vehicle>
    <vehicle id="trip_23" depart="11.50">
        <route edges="1049841322#12 497165756#0 497165756#2 458180192#4 420281338#0 5671709#0 569345537#2 569345537#4 499172074#3 499172074#6 196116976#6 196116976#9"/>
    </vehicle>
    <vehicle id="trip_24" depart="12.00">
        <route edges="46522008#2 1051744778#0 968513230#0 460585328#7 46482602#2 846142552#0 846142553#0 420494981#0 1051744070#0 46522000#0 458180183#0 438397345#0 464515891#0 511699184#0 511699185#0 438385431#0 5672155#0 226041004#0 771759767 771759765 386972970"/>
    </vehicle>
    <vehicle id="trip_25" depart="12.50">
        <route edges="388696207#0 5672951#0 671208357#0 -388696206#2 -1087048475#1 195743336#0 195743336#3 195743336#6 988984235#0 458180197#0 458180191#0 458180191#3 458180191#6 458180190#0 384178816#0 384178816#3 511699175#0 458180183#0 1061622295#0 5670124 1117867038#0 1117867040#1 46522008#2 1051744778#0 968513230#0 460585328#7 460585328#10 1136391283#3 46482604 1156946160#0"/>
    </vehicle>
    <vehicle id="trip_26" depart="13.00">
        <route edges="195743209#0 195743345#0 420907902#0 125480075#0 194926851#0 194926851#1 194926851#3 846142553#0 420494981#0 1051744070#0 46522000#0 5670225#0 1106482767#0 458180181#0 1106482768#0 420902878#0 1037772010 1061623142#0 196117039#0 458177131#0 727702633"/>
    </vehicle>
    <vehicle id="trip_27" depart="13.50">
        <route edges="496983397#0 587038081#0 384649120#2 384649120#5 384649120#8 384649120#11 1021068251#0 440122868#0 1021065071#0 448686048#0 127693103#0 127693103#3 464515890 1051846230#0 5672149#0 5672149#3 46520921#0"/>
    </vehicle>
    <vehicle id="trip_28" depart="14.00">
        <route edges="1117867038#0 682360554#0 1117867028 464516471#0 464516471#2 464516471#4 464516471#6 464516471#8 464516471#10 464516471#11 569345537#0 569345537#1 569345537#2 569345537#4 541350711#0"/>
    </vehicle>
    <vehicle id="trip_29" depart="14.50">
        <route edges="1106482767#0 458180181#0 1106482768#0 420902878#0 1037772010 1061623142#0 196117039#0 496990647#0 496990647#3 -496990648#1 420356168#0"/>
    </vehicle>
    <vehicle id="trip_30" depart="15.00">
        <route edges="988956475 1037772011 575746067 359180981#0 1049841322#0 1049841322#3 1049841322#6 458180186#4 1051743127#0 458180184#0 5670114#0 542258337#0 1051745205#0 569345540#3 167922071#0 483360105#0"/>
    </vehicle>
    <vehicle id="trip_31" depart="15.50">
        <route edges="460585328#13 460585328#16 460585328#19 194920158#3 194920158#7 194920158#9 1136460176#0 420908138#0 464516471#11 569345537#0 569345537#1 569345537#2 569345537#4 499172074#3"/>
    </vehicle>
    <vehicle id="trip_32" depart="16.00">
        <route edges="569345536 569345537#0 569345537#1 569345537#2 46521993#0 5672954#0 541331485#0 226041011#1 458180195#0 458180193#0 458180193#2 458180193#4 458180189#0 458180187#0 458180187#2 458180187#4 420496090#0 1051751160#0 1030123273#0 1030123273#3 5672151#0 46518731#4 1022790247#0 5671192#0"/>
    </vehicle>
    <vehicle id="trip_33" depart="16.50">
        <route edges="167922072#0 1136952921#0 -1136952921#1 -167922072#1 127693103#0 127693103#3 464515890 1051846230#0 5672149#0 5672149#3 -511699179"/>
    </vehicle>
    <vehicle id="trip_34" depart="17.00">
        <route edges="226041022#0 438385431#3 36806906#0 384649120#11 1021068251#0 440122868#0 1021065071#0 448686048#0 127693103#0 127693103#3 464516471#0 464516471#2 464516471#4 464516471#6 464516471#8 464516471#10 464516471#11 569345537#0 569345537#1 569345537#2 569345537#4 541350711#0 541350711#3 497258109#0 195743336#0 195743336#3"/>
    </vehicle>
    <vehicle id="trip_35" depart="17.50">
        <route edges="1150636501#0 438385431#6 483236728#0 195743182#3 195743182#6 226041004#0 771759767 771759765 226041002 771759764#0"/>
    </vehicle>
    <vehicle id="trip_36" depart="18.00">
        <route edges="609596058 988956475 -988956476 44165031 771759766 771759769#0 1150636499#0 1150636500#0 195743182#6 511699182#0 511699182#3 511699181#0 966105510#0 438384693#0 438384693#3 420356173#0 458177130#0 1061622295#0 5670124 1117867038#0 1117867040#1 46522008#2 1051744778#0 968513231#0 968513229#0 1021047632#0 194926855#0 525729009#0 1025734022#0 226041023"/>
    </vehicle>
    <vehicle id="trip_38" depart="19.00">
        <route edges="68674961#9 44165030#0 386972970 872052106 1037772011 575746067 359180981#0 1049841322#0 1049841322#3 1049841322#6 458180186#4 458180185#0 441405436#0"/>
    </vehicle>
    <vehicle id="trip_39" depart="19.50">
        <route edges="195743208#0 -195743208#5 1027181005#0 1124078896#0 1124078897#0 1124078898#0 1124078899#0 194926854#0 125479721#0 542257430#0 195743345#0 420907902#0 125480075#0 194926851#0 194926851#1"/>
    </vehicle>
    <vehicle id="trip_40" depart="20.00">
        <route edges="460585328#19 194920158#3 1025734020#0 1025734020#3 814278019#0 1136391284#0 420907908#0 968513231#0 968513229#0 1021047632#0 194926855#0 525729009#0 1025734022#0 226041023 1031879418#0 505317789#0 542257430#0 195743210"/>
    </vehicle>
    <vehicle id="trip_41" depart="20.50">
        <route edges="464516471#10 464516471#11 569345537#0 569345537#1 569345537#2 569345537#4 541350711#0 541350711#3 497258109#0 5670139#0 388696206#0 46240204#0 671208358#0 671208358#3 671208358#6"/>
    </vehicle>
    <vehicle id="trip_42" depart="21.00">
        <route edges="420806146#0 46521998#0 458180193#0 458180193#2 458180193#4 458180189#0 458180186#0 458180186#4 1051743127#0 458180184#0 384178816#0 384178816#3 511699175#0 458180183#0 438397345#0 464515891#0 5672464#0 127693103#3"/>
    </vehicle>
    <vehicle id="trip_43" depart="21.50">
        <route edges="988977545#9 1049841322#3 1049841322#6 458180186#4 458180185#0"/>
    </vehicle>
    <vehicle id="trip_44" depart="22.00">
        <route edges="1037772010 1061623142#0 196117039#0 458177131#0 727702633 727702632#0 511699176#0 458177130#0 438397345#0 464515891#0 511699184#0 511699185#0 438385431#0 438385431#3 36806906#0 384649120#11 1021068251#0"/>
    </vehicle>
    <vehicle id="trip_45" depart="22.50">
        <route edges="1049888072 1049888073 420907903 420907906#0 194920158#9 1136460176#0 420908138#0 5670867#0 458180190#0 384178816#0 384178816#3 511699175#0 458180183#0 438397345#0 464515891#0 511699184#0 511699185#0 438385431#0 438385431#3 438385431#6 438385431#9 420904660#0 1036712190 46522005#0"/>
    </vehicle>
    <vehicle id="trip_46" depart="23.00">
        <route edges="5672036#2 483360105#0 397795463#0 682360554#0 397795464#0 569345544#0 167922070#0 195743209#0 195743345#0 420907902#0"/>
    </vehicle>
    <vehicle id="trip_47" depart="23.50">
        <route edges="1025734020#3 814278019#0 1136391284#0 846142552#0 846142553#0 420494981#0 1051744070#0 46522000#0 5670225#0 1106482767#0 458180181#0 1106482768#0 420902878#0 1037772010 1061623142#0 196117039#0 496990647#0 420356171#0"/>
    </vehicle>
    <vehicle id="trip_48" depart="24.00">
        <route edges="988977545#6 988977545#9 1049841322#3 1049841322#6 458180186#4 458180185#0 441405435 1023236297 569345531 569345535#0 458180191#6"/>
    </vehicle>
    <vehicle id="trip_49" depart="24.50">
        <route edges="858965315#0 68674961#6 1150636499#0 1150636500#0 226041001#0 1150636501#0 36806906#0 36806906#3 1070126888#0 1070126889 1049920715#0 1049920718#0 569345547#0"/>
    </vehicle>
    <vehicle id="trip_50" depart="25.00">
        <route edges="-36271338#4 1087744935#6 458166897#0 458166897#3 458166897#6 46522007#0 458177131#0 727702633 727702632#0 511699176#0 458177130#0 1061622295#0 5670124 1117867038#0 1117867040#1 46522008#2 1051744778#0 968513231#0 968513229#0 1021047632#0 194926855#0 525729009#0 1025734022#0 525729010#0"/>
    </vehicle>
    <vehicle id="trip_51" depart="25.50">
        <route edges="497165756#2 497165756#5 226041011#1 458180195#0 458180193#0 458180193#2"/>
    </vehicle>
    <vehicle id="trip_52" depart="26.00">
        <route edges="195743209#0 195743345#0 420907902#0 -525729008#5 167922070#0 195743344#0 1049920716#0 1049920718#0 569345547#0 1135620538#0 464543615#0 1051750427#0 5670803#0 492489884#0"/>
    </vehicle>
    <vehicle id="trip_53" depart="26.50">
        <route edges="1049888073 420907903 420907906#0 194920158#9 1136460176#0 420908138#0 464516471#11 569345537#0 569345537#1 569345537#2 46521993#0 5672954#0 458180196 420906752 421850830"/>
    </vehicle>
    <vehicle id="trip_54" depart="27.00">
        <route edges="438385431#6 438385431#9 420904660#0 1036712190 384649120#5 384649120#8 384649120#11 1021068251#0 440122868#0 5673323#0 803047266#0"/>
    </vehicle>
    <vehicle id="trip_55" depart="27.50">
        <route edges="600848485#0 1027181005#0 1124078896#0 1124078897#0 1124078898#0 1124078899#0 194926854#0 125479721#0 542257430#0 195743210"/>
    </vehicle>
    <vehicle id="trip_56" depart="28.00">
        <route edges="458166897#36 710571387#0 544812894#0 569345502#6 458180195#0 458180193#0 458180193#2 458180193#4 458180189#0 458180186#0 458180186#4 1051743127#0 458180184#0 384178816#0 384178816#3 511699175#0 458180183#0 1061622295#0 5670124 1117867038#0 1117867040#1 46522008#2 1051744778#0 968513231#0 968513229#0 1021047632#0 194926855#0 525729009#0 1025734022#0 525729010#0 1135614655#0"/>
    </vehicle>
    <vehicle id="trip_58" depart="29.00">
        <route edges="226041004#0 771759768 771759769#0 1150636499#0 1150636500#0 195743182#6 511699182#0 511699182#3 511699181#0 966105510#0 438384693#0 438384693#3 420356173#0 458177130#0 1061622295#0 5670124 464516471#2 464516471#4 5672036#2 483360105#0"/>
    </vehicle>
    <vehicle id="trip_60" depart="30.00">
        <route edges="5670124 464516471#2 464516471#4 464516471#6 464516471#8 464516471#10 464516471#11 569345537#0 569345537#1 569345537#2 46521993#0 5672954#0 541331485#0 226041011#1 458180195#0 458180193#0 458180193#2 458180193#4"/>
    </vehicle>
    <vehicle id="trip_61" depart="30.50">
        <route edges="5671129#0 421850829#0 -1087048475#1 195743336#0 195743336#3 195743336#6 988984235#0 458180197#0 458180191#0 458180191#3 458180191#6"/>
    </vehicle>
    <vehicle id="trip_62" depart="31.00">
        <route edges="-1087048475#1 195743336#0 195743336#3 195743336#6 988984235#0 458180197#0 5671709#0 420905130 46538371#0 1136460180#0 1136460181#0 812949648#0 226041030"/>
    </vehicle>
    <vehicle id="trip_63" depart="31.50">
        <route edges="-420904618#2 460585328#0 460585328#4 460585328#7 46482602#2 846142552#0 846142553#0 420494981#0 1051744070#0 464516471#4 464516471#6 464516471#8 464516471#10 464516471#11 569345537#0 569345537#1 420905130 382740985#3 717625447#0"/>
    </vehicle>
    <vehicle id="trip_64" depart="32.00">
        <route edges="618990022#0 196116976#3 196116976#6 324118554#0 226041032#0 46521993#0 5672954#0 541331485#0 497165753#9 497165753#11 497165753#14 569345518#0"/>
    </vehicle>
    <vehicle id="trip_65" depart="32.50">
        <route edges="226041011#1 458180195#0 458180192#0 458180192#4 420281338#0 5671709#0 420905130 46538371#0 1136460180#0 1136460181#0 812949648#0 226041030 226041031 1025734018#0"/>
    </vehicle>
    <vehicle id="trip_66" depart="33.00">
        <route edges="618990022#0 196116976#3 196116976#6 196116976#9 1136460180#0 1136460181#0 812949648#0 1136460179#0 1136460176#0 420908138#0 5670867#0 458180190#0 384178816#0 384178816#3 511699175#0 458180183#0 438397345#0 464515891#0 511699184#0 511699185#0 438385431#0 5672155#0 226041004#0 771759767 771759766"/>
    </vehicle>
    <vehicle id="trip_67" depart="33.50">
        <route edges="1031879418#0 505317789#0 542257430#0 195743345#0 420907902#0 125480075#0 194926851#0 194926851#1 194926851#3 846142553#0 420494981#0 1051744070#0 46522000#0 5670225#0 1106482767#0 458180181#0 1106482768#0 420902878#0 1037772010 1061623142#0 196117039#0 496990647#0 496990647#3 -496990648#1 458166897#0 458166897#3"/>
    </vehicle>
    <vehicle id="trip_68" depart="34.00">
        <route edges="1027189507 1049888072 1049888073 420907903 420907906#0 194920158#9 1136460176#0 420908138#0 5670867#0 458180190#0 5670114#0"/>
    </vehicle>
    <vehicle id="trip_69" depart="34.50">
        <route edges="5670197#0 1051734607#0 542257008#0 569345547#0 1135620538#0 464543615#0 1051750427#0 384649121#0 496983397#0 1051750425#0"/>
    </vehicle>
    <vehicle id="trip_70" depart="35.00">
        <route edges="452322756#2 1136391284#0 420907908#0 968513230#0 460585328#7 460585328#10"/>
    </vehicle>
    <vehicle id="trip_72" depart="36.00">
        <route edges="420906753 496992868 1023238044 420281338#0 458180191#0 458180191#3 46538335#0 569345536 569345537#0 717625447#2 1165644579#0"/>
    </vehicle>
    <vehicle id="trip_73" depart="36.50">
        <route edges="458180192#4 420281338#0 5671709#0 569345537#2 569345537#4 541350711#0"/>
    </vehicle>
    <vehicle id="trip_74" depart="37.00">
        <route edges="1136460181#0 812949648#0 1136460179#0 1136460176#0 569345540#0 569345540#3 167922071#0 483360105#0 397795463#0 682360554#0 397795464#0 569345544#0 -167922076#2 35027229#0 803047267#0 542258061#0 226041022#0"/>
    </vehicle>
    <vehicle id="trip_75" depart="37.50">
        <route edges="988977545#6 458180187#4 196117039#0 496990647#0"/>
    </vehicle>
    <vehicle id="trip_76" depart="38.00">
        <route edges="421850830 528748997#0 497165753#3 497165753#6 226041011#1 458180195#0 458180193#0 458180193#2 458180193#4 458180189#0 458180187#0 458180187#2"/>
    </vehicle>
    <vehicle id="trip_77" depart="38.50">
        <route edges="1051734607#0 1124078899#0 194926854#0 125479721#0 542258060#0 569345546#0 542258061#0 1021068251#0 440122868#0 1021065071#0 448686048#0 167922072#0"/>
    </vehicle>
    <vehicle id="trip_78" depart="39.00">
        <route edges="324118554#0 382740985#0 46538371#0 1136460180#0 1136460181#0 812949648#0 1136460179#0 1136460176#0 569345540#0 569345540#3 167922071#0 483360105#0 420494981#0 1051744070#0 464516471#4 464516471#6"/>
    </vehicle>
    <vehicle id="trip_79" depart="39.50">
        <route edges="167922073#0 464516471#8 542258337#0 1051745205#0 569345540#3 167922071#0 483360105#0 397795463#0 682360554#0 397795464#0 569345544#0 167922070#0"/>
    </vehicle>
    <vehicle id="trip_80" depart="40.00">
        <route edges="1027189508 1027189507 1049888072 1049888073 420907903 420907906#0 194920158#9 1136460176#0 420908138#0 5670867#0 5673497#0 441405436#0 511924978#1 458180189#0 458180187#0 458180187#2 458180187#4 196117039#0 496990647#0 420356171#0 458166897#6 46522007#0"/>
    </vehicle>
    <vehicle id="trip_81" depart="40.50">
        <route edges="167922072#0 1136952921#0 35027229#0 803047267#0 542258061#0 226041022#0 5672155#0 226041004#0 771759767 771759765 226041002 68674960#0"/>
    </vehicle>
    <vehicle id="trip_82" depart="41.00">
        <route edges="569345543#0 1049845754 194926851#0 194926851#1 194926851#3 194926851#6 1027189508"/>
    </vehicle>
    <vehicle id="trip_83" depart="41.50">
        <route edges="169267541#0 1135661892#0 46522002#0 458180186#0 458180186#4 458180185#0 441405435 1023236297 420906753 496992868 1023238044 420281339#0 541331485#0 497165753#9"/>
    </vehicle>
    <vehicle id="trip_84" depart="42.00">
        <route edges="1157664114#0 600848485#0 1027181005#0 1124078896#0 46481747#0 464543615#0 1051750427#0"/>
    </vehicle>
    <vehicle id="trip_85" depart="42.50">
        <route edges="727702632#0 511699176#0 458177130#0 1061622295#0 5670124 464516471#2 464516471#4 464516471#6 464516471#8 542258337#0 1051745205#0 46443656#0 46443656#3 46443656#4"/>
    </vehicle>
    <vehicle id="trip_86" depart="43.00">
        <route edges="452322756#0 1027189507 1049888072 1049888073 420907903 420907906#0 194920158#9 1136460176#0 420908138#0 5670867#0 458180190#0 384178816#0 384178816#3 5672036#0"/>
    </vehicle>
    <vehicle id="trip_87" depart="43.50">
        <route edges="5672954#0 541331485#0 226041011#1 458180195#0 458180193#0 458180193#2 458180193#4 458180189#0 458180186#0 458180186#4 1051743127#0 458180184#0 384178816#0 384178816#3 511699175#0 458180183#0 1061622295#0 5670124 1117867038#0 1117867040#1 46522008#2 1051744778#0 968513230#0 460585328#7 460585328#10 1136391283#3"/>
    </vehicle>
    <vehicle id="trip_88" depart="44.00">
        <route edges="1043336433#0 1025734022#0 226041023 1031879418#0 505317789#0 542257430#0 195743345#0 420907902#0 125480075#0 194926851#0 194926851#1 194926851#3 194926851#6 1027189508 1027189507 1049888072 1049888073 420907903 420907906#0 194920158#9 1136460176#0 420908138#0"/>
    </vehicle>
    <vehicle id="trip_89" depart="44.50">
        <route edges="420906753 496992868 1023238044 420281338#0 458180191#0 458180191#3 458180191#6 458180190#0 384178816#0 384178816#3 511699175#0 458180183#0 438397345#0 464515891#0 511699184#0 511699185#0 438385431#0 438385431#3 36806906#0 384649120#11 1021068251#0 440122868#0 1021065071#0 448686048#0"/>
    </vehicle>
    <vehicle id="trip_90" depart="45.00">
        <route edges="541331485#0 497165753#9 497165753#11 497165756#2"/>
    </vehicle>
    <vehicle id="trip_91" depart="45.50">
        <route edges="968513229#0 1021047632#0 194926855#0 -542259076#3 125480075#0 194926851#0 194926851#1 194926851#3 846142553#0 420494981#0 1051744070#0 46522000#0 5670225#0 1106482767#0 458180181#0 1106482768#0 420902878#0 1049841322#0"/>
    </vehicle>
    <vehicle id="trip_92" depart="46.00">
        <route edges="420901681#0 420901681#3 1030123273#0 5671192#3 420902874#0 46522007#0 496990647#0 496990647#3 630828556#0 5670106#9 36271338#0"/>
    </vehicle>
    <vehicle id="trip_93" depart="46.50">
        <route edges="569345544#0 525729008#0 125480075#0 194926851#0 194926851#1 194926851#3"/>
    </vehicle>
    <vehicle id="trip_94" depart="47.00">
        <route edges="1136391283#0 460585328#13 5671115#3 814278019#0 1136391284#0 846142552#0 846142553#0 420494981#0 1051744070#0 46522000#0 458180183#0 438397345#0 464515891#0 511699184#0 511699185#0 438385431#0 438385431#3 438385431#6"/>
    </vehicle>
    <vehicle id="trip_95" depart="47.50">
        <route edges="420906752 421850830 421850829#0 -1087048475#1 195743336#0 195743336#3 499172074#0 499172074#3 499172074#6 196116976#6 196116976#9"/>
    </vehicle>
    <vehicle id="trip_96" depart="48.00">
        <route edges="194926851#1 194926851#3 846142553#0 420494981#0 1051744070#0 464516471#4 464516471#6 464516471#8 464516471#10 464516471#11 569345537#0 569345537#1 569345537#2 46521993#0 5672954#0 541331485#0 226041011#1 458180194#0 458166897#36 710571387#0"/>
    </vehicle>
    <vehicle id="trip_97" depart="48.50">
        <route edges="438382685#0 438384692#0 511699185#0 438385431#0 438385431#3 36806906#0 36806906#3 1070126888#0 1070126889 1049920715#0 1049920718#0 569345547#0"/>
    </vehicle>
    <vehicle id="trip_98" depart="49.00">
        <route edges="458180196 226041012#2 195743336#6 988984235#0 5672954#0 541331485#0 226041011#1 458180195#0 458180193#0 458180193#2 458180193#4 458180189#0 458180187#0 458180187#2 458180187#4 420496090#0 1051751160#0 1030123273#0 1030123273#3 5672151#0 46518731#4 1022790247#0"/>
    </vehicle>
    <vehicle id="trip_99" depart="49.50">
        <route edges="988984235#0 458180197#0 458180191#0 458180191#3 458180191#6 5673497#0 441405435 1023236297 569345531"/>
    </vehicle>
    <vehicle id="trip_100" depart="50.00">
        <route edges="847002232#0 226041023 1031879418#0 505317789#0 542257430#0 195743345#0 420907902#0 125480075#0 194926851#0 194926851#1 194926851#3 846142553#0 420494981#0 1051744070#0 464516471#4 464516471#6 464516471#8 464516471#10 464516471#11 569345537#0 569345537#1 569345537#2 46521993#0 5672954#0 541331485#0 226041011#1 458180194#0 458166897#36 710571389#0"/>
    </vehicle>
    <vehicle id="trip_101" depart="50.50">
        <route edges="569345537#2 46521993#0 458180197#0 458180191#0 458180191#3 458180191#6 458180190#0 384178816#0 384178816#3 511699175#0 458180183#0 1061622295#0 5670124 1117867038#0 682360554#0 1117867028"/>
    </vehicle>
    <vehicle id="trip_102" depart="51.00">
        <route edges="458166897#15 458166897#18 46522002#0 458180186#0 458180186#4 1051743127#0 458180184#0 384178816#0 384178816#3 511699175#0 458180183#0 1061622295#0 5670124 1117867038#0 682360554#0 397795464#0 569345544#0 167922070#0 195743344#0 1049920716#0 542257982#0 125479721#0"/>
    </vehicle>
    <vehicle id="trip_104" depart="52.00">
        <route edges="420281339#0 541331485#0 226041011#1 458180195#0 458180193#0 458180193#2 458180193#4 458180189#0 458180186#0 458180186#4 1051743127#0 458180184#0 384178816#0 384178816#3 511699175#0 458180183#0 1061622295#0 5670124 1117867038#0 1117867040#1 46522008#2 1051744778#0 968513231#0 968513229#0"/>
    </vehicle>
    <vehicle id="trip_105" depart="52.50">
        <route edges="195743208#0 384649121#0 496983397#0 587038081#0 384649120#2 384649120#5 384649120#8 384649120#11 1021068251#0 440122868#0 1021065071#0 448686048#0 127693103#0 127693103#3 464516471#0 464516471#2 464516471#4 464516471#6 464516471#8 464516471#10 464516471#11 569345537#0 569345537#1 569345537#2 46521993#0 458180197#0 5671709#0"/>
    </vehicle>
    <vehicle id="trip_106" depart="53.00">
        <route edges="438385431#9 420904660#0 1036712190 384649120#5 384649120#8 384649120#11 1021068251#0 440122868#0 1021065071#0 448686048#0 127693103#0 127693103#3 464516471#0 1117867038#0 1117867040#1 194926851#3 194926851#6 1027189508 1027189507 1049888072 1049888073 420907903"/>
    </vehicle>
    <vehicle id="trip_107" depart="53.50">
        <route edges="803047267#0 542258061#0 1021068251#0 440122868#0 1021065071#0 448686048#0 127693103#0 127693103#3 464516471#0 464516471#2 46522000#0 5670225#0 1106482767#0 458180181#0 1106482768#0 420902878#0 1037772010 1061623142#0 420496090#0 458166897#12 988977545#6"/>
    </vehicle>
    <vehicle id="trip_108" depart="54.00">
        <route edges="460585328#10 460585328#13 5671115#3 814278019#0 1136391284#0 420907908#0 968513231#0 968513229#0 1021047632#0 194926855#0 525729009#0"/>
    </vehicle>
    <vehicle id="trip_109" depart="54.50">
        <route edges="1106474772#0 1106474773#0 5672951#0 671208357#0 497165757#0 569345502#0 569345502#3 569345502#6 458180195#0 458180193#0 458180193#2 458180193#4 458180189#0 458180187#0 458180187#2 458180187#4 196117039#0 496990647#0 496990647#3 630828556#0 671212509#0 226041005#0 226041005#3"/>
    </vehicle>
    <vehicle id="trip_110" depart="55.00">
        <route edges="847002232#0 226041023 1031879418#0 505317789#0 542258060#0 569345546#0 542258061#0 1021068251#0 440122868#0 1021065071#0 448686048#0 127693103#0 127693103#3 464516471#0"/>
    </vehicle>
    <vehicle id="trip_111" depart="55.50">
        <route edges="458180193#2 458180193#4 458180189#0 458180186#0 458180186#4 1051743127#0 458180184#0 5670114#0 542258337#0"/>
    </vehicle>
    <vehicle id="trip_112" depart="56.00">
        <route edges="1023238044 420281338#0 458180191#0 458180191#3 458180191#6 458180190#0 5670114#0 464516471#10 464516471#11"/>
    </vehicle>
    <vehicle id="trip_113" depart="56.50">
        <route edges="458166897#9 458166897#12 458166897#15 458166897#18 46522002#0 458180186#0 458180186#4 1051743127#0 458180184#0 5670114#0 542258337#0 1051745205#0 569345540#3"/>
    </vehicle>